tests/golden/reports/show_powers.txt

SYMMETRICAL COMPONENT POWERS BY CIRCUIT ELEMENT (first 3 phases)                                     Excess Power

Element Term    P1(kW)   Q1(kvar)       P2         Q2      P0      Q0       P_Norm      Q_Norm     P_Emerg    Q_Emerg

"Vsource.source"  1    -3567.1    -1736.5        0.0        0.0     0.0     0.0
"Vsource.source"  2        0.0        0.0        0.0        0.0     0.0     0.0
"Transformer.sub"  1     3567.1     1736.5        0.0        0.0     0.0     0.0        0.0        0.0        0.0        0.0
"Transformer.sub"  2    -3567.0    -1736.2        0.0        0.0     0.0     0.0
"Transformer.reg1"  1        0.0        0.0        0.0        0.0     0.0     0.0        0.0        0.0        0.0        0.0
"Transformer.reg1"  2        0.0        0.0        0.0        0.0     0.0     0.0
"Transformer.reg2"  1        0.0        0.0        0.0        0.0     0.0     0.0        0.0        0.0        0.0        0.0
"Transformer.reg2"  2        0.0        0.0        0.0        0.0     0.0     0.0
"Transformer.reg3"  1        0.0        0.0        0.0        0.0     0.0     0.0        0.0        0.0        0.0        0.0
"Transformer.reg3"  2        0.0        0.0        0.0        0.0     0.0     0.0
"Transformer.xfm1"  1      405.5      300.5       -0.2        0.1     0.3    -0.4       27.5       20.4        0.0        0.0
"Transformer.xfm1"  2     -400.0     -290.5        0.3        0.0    -0.2     0.5
"Capacitor.cap1"  1        0.0     -592.5        0.0       -0.2     0.0    -0.8        0.0        0.0        0.0        0.0
"Capacitor.cap1"  2        0.0        0.0        0.0        0.0     0.0     0.0
"Capacitor.cap2"  1        0.0        0.0        0.0        0.0     0.0     0.0        0.0        0.0        0.0        0.0
"Capacitor.cap2"  2        0.0        0.0        0.0        0.0     0.0     0.0
"Line.650632"  1     3563.1     1732.4        1.9        2.2     1.7     1.3     1155.7      562.5        0.0        0.0
"Line.650632"  2    -3508.3    -1545.3        1.3        2.0     1.0     3.5
"Line.632670"  1     2696.7      983.7       -3.1       -2.3    -1.9    -5.1      457.4      165.9        0.0        0.0
"Line.632670"  2    -2687.3     -948.7        4.9        5.1     3.6     8.9
"Line.670671"  1     2486.3      832.7       -5.6       -4.4    -1.9    -9.5      386.0      127.5        0.0        0.0
"Line.670671"  2    -2470.6     -773.7        9.2        9.9     5.4    17.4
"Line.671680"  1        0.0        0.0        0.0        0.0     0.0     0.0        0.0        0.0        0.0        0.0
"Line.671680"  2        0.0        0.0        0.0        0.0     0.0     0.0
"Line.632633"  1      406.3      301.5       -0.2        0.1     0.3    -0.4        0.0        0.0        0.0        0.0
"Line.632633"  2     -405.5     -300.5        0.2       -0.1    -0.3     0.4
"Line.632645"  1        0.0        0.0        0.0        0.0     0.0     0.0        0.0        0.0        0.0        0.0
"Line.632645"  2        0.0        0.0        0.0        0.0     0.0     0.0
"Line.645646"  1        0.0        0.0        0.0        0.0     0.0     0.0        0.0        0.0        0.0        0.0
"Line.645646"  2        0.0        0.0        0.0        0.0     0.0     0.0
"Line.692675"  1      855.7     -109.8       -4.9       -2.9    -3.6   -16.4        0.0        0.0        0.0        0.0
"Line.692675"  2     -853.7      111.3        5.3        3.2     5.5    17.0
"Line.671684"  1        0.0        0.0        0.0        0.0     0.0     0.0        0.0        0.0        0.0        0.0
"Line.671684"  2        0.0        0.0        0.0        0.0     0.0     0.0
"Line.684611"  1        0.0        0.0        0.0        0.0     0.0     0.0        0.0        0.0        0.0        0.0
"Line.684611"  2        0.0        0.0        0.0        0.0     0.0     0.0
"Line.684652"  1        0.0        0.0        0.0        0.0     0.0     0.0        0.0        0.0        0.0        0.0
"Line.684652"  2        0.0        0.0        0.0        0.0     0.0     0.0
"Line.671692"  1     1023.7       42.1       -6.2       -6.6    -3.6   -16.4        0.0        0.0        0.0        0.0
"Line.671692"  2    -1023.7      -42.1        6.2        6.6     3.6    16.4
"Load.671"  1     1155.0      660.0        0.0        0.0     0.0     0.0
"Load.634a"  1        0.0        0.0        0.0        0.0     0.0     0.0
"Load.634b"  1        0.0        0.0        0.0        0.0     0.0     0.0
"Load.634c"  1        0.0        0.0        0.0        0.0     0.0     0.0
"Load.645"  1        0.0        0.0        0.0        0.0     0.0     0.0
"Load.646"  1        0.0        0.0        0.0        0.0     0.0     0.0
"Load.692"  1        0.0        0.0        0.0        0.0     0.0     0.0
"Load.675a"  1        0.0        0.0        0.0        0.0     0.0     0.0
"Load.675b"  1        0.0        0.0        0.0        0.0     0.0     0.0
"Load.675c"  1        0.0        0.0        0.0        0.0     0.0     0.0
"Load.611"  1        0.0        0.0        0.0        0.0     0.0     0.0
"Load.652"  1        0.0        0.0        0.0        0.0     0.0     0.0
"Load.670a"  1        0.0        0.0        0.0        0.0     0.0     0.0
"Load.670b"  1        0.0        0.0        0.0        0.0     0.0     0.0
"Load.670c"  1        0.0        0.0        0.0        0.0     0.0     0.0

Total Circuit Losses =  112.4 +j  327.9
